36
 SCF done************************************************
C          -5.80233000000000   -2.05559000000000    0.63337000000000
S          -4.05125000000000    1.88142000000000   -1.10577000000000
C          -3.72672000000000   -0.81859000000000   -1.41699000000000
Si         -2.92787000000000    0.09046000000000    0.29932000000000
Si        -17.09002000000000   12.09605000000000    9.86613000000000
Br         -4.23663000000000    1.69713000000000    2.96131000000000
Br         -0.93235000000000   -1.41062000000000    1.09314000000000
Si         52.68556000000000   -3.21074000000000   16.92805000000000
Br         -1.52462000000000    3.94629000000000    2.29319000000000
Br          1.62249000000000    0.71816000000000    0.40803000000000
Si         -1.78200000000000  -24.07443000000000   -4.05906000000000
Br         -0.93159000000000   -1.41039000000000    1.09184000000000
Br         -2.88014000000000   -0.88998000000000   -3.51352000000000
Si         -5.33602000000000  -10.36772000000000   -0.24506000000000
Br         -4.19363000000000    1.70983000000000    2.88033000000000
Br         -5.77322000000000    2.17049000000000   -1.10643000000000
Si          2.93522000000000    0.97173000000000    0.82622000000000
Si          9.71128000000000    1.80461000000000  -26.49292000000000
Br         -2.41494000000000   -0.46907000000000   -3.67587000000000
Br         -5.65511000000000    2.27606000000000   -1.14961000000000
Si         -6.98337000000000    2.17435000000000   -1.50772000000000
Br         -2.92675000000000   -0.89044000000000   -3.52766000000000
Br         -5.77326000000000    2.17052000000000   -1.10641000000000
C           5.00125000000000    1.28970000000000    2.35091000000000
S           4.53257000000000    0.97044000000000   -0.08809000000000
C           5.21009000000000    1.49763000000000    1.58272000000000
H          -4.75112000000000    1.40623000000000    1.17618000000000
H          -5.43262000000000    2.84283000000000    0.86224000000000
H          -2.15294000000000    0.99443000000000   -0.22497000000000
H          -4.02641000000000   -0.36477000000000   -1.30318000000000
H          -3.23251000000000    0.51361000000000   -2.44332000000000
H           3.44113000000000   -0.27899000000000    1.96241000000000
H           3.17564000000000   -0.12660000000000    1.03448000000000
H           6.21511000000000    1.70913000000000    1.30890000000000
H           5.24278000000000   -0.97012000000000    1.23701000000000
H           4.76428000000000    2.40694000000000    2.17080000000000
