72
 SCF done************************15900601004.487497329712
C           6.39607000000000   -0.29945000000000   -0.11053000000000
S           5.18307000000000    0.27543000000000    0.46849000000000
C           3.46014000000000    0.47450000000000    1.24113000000000
Si          1.73066000000000    0.19109000000000    0.60325000000000
Si          1.63741000000000   -1.21557000000000   -1.16882000000000
C           4.07175000000000   -1.60692000000000    0.24979000000000
Cl          3.92463000000000   -1.70961000000000   -0.08517000000000
Cl          1.73948000000000   -4.24640000000000   -1.37058000000000
Cl          3.55970000000000   -2.91215000000000    0.61966000000000
C           1.88842000000000   -2.67749000000000   -4.75497000000000
Cl          1.92661000000000   -2.65378000000000   -4.65295000000000
Cl          1.31067000000000    0.33964000000000   -4.05703000000000
Cl          3.98793000000000    0.18557000000000   -2.63428000000000
Si          1.19983000000000   -1.39787000000000   -3.00312000000000
C          -5.14730000000000   -3.29802000000000    0.74848000000000
Cl         -3.51539000000000    2.75782000000000   -6.86146000000000
Cl         -5.12141000000000   -3.28510000000000    0.71247000000000
Cl          0.07778000000000   -2.04755000000000   -4.40060000000000
C          12.48831000000000    5.52691000000000  -23.71951000000000
Cl         -5.12136000000000   -3.28515000000000    0.71242000000000
Cl         -5.10560000000000   -3.18114000000000    0.67651000000000
Cl         -0.22880000000000   -4.13533000000000   -0.76561000000000
Si          1.00722000000000    2.25914000000000    0.22696000000000
C          -6.19048000000000    4.03463000000000    1.27164000000000
Cl          2.79845000000000    4.03782000000000    1.73833000000000
Cl          0.16953000000000    3.80253000000000    2.60686000000000
Cl         -4.31600000000000    3.62836000000000    0.52550000000000
C          11.25162000000000    0.60672000000000   -2.20187000000000
Cl          4.00802000000000    2.92133000000000   -0.38400000000000
Cl          9.01129000000000    2.12178000000000   -2.79767000000000
Cl         -0.60343000000000    2.86040000000000   -0.46321000000000
Si         -1.58993000000000    1.07394000000000   -0.82339000000000
C          -3.16711000000000   -3.13054000000000    5.17015000000000
Cl         -4.23526000000000   -0.50259000000000    2.69715000000000
Cl         -1.36859000000000    4.97403000000000   -0.54094000000000
Cl         -3.33328000000000    4.03174000000000   -0.83817000000000
C          -3.49272000000000   11.00574000000000   -6.67515000000000
Cl         -3.32664000000000    4.05865000000000   -0.83243000000000
Cl          3.20661000000000    5.92100000000000   -4.66245000000000
Cl         -3.33395000000000    4.03163000000000   -0.84070000000000
Si         -0.97065000000000   -0.18693000000000   -0.67989000000000
Si          7.82016000000000    1.36342000000000    6.02297000000000
C          -3.80036000000000   -2.01927000000000    1.30962000000000
Cl         -3.75861000000000   -1.81845000000000    1.50993000000000
Cl         -1.74425000000000   -3.69802000000000    2.63905000000000
Cl         -4.39528000000000   -0.14013000000000    0.72705000000000
C          -3.02125000000000    1.72931000000000    5.05290000000000
Cl         -2.25140000000000    1.78099000000000    3.60807000000000
Cl         -3.76024000000000   -1.81917000000000    1.51808000000000
Cl         -3.75768000000000   -1.81612000000000    1.50956000000000
Si          0.67147000000000   -0.73289000000000    2.42856000000000
C           3.84756000000000   -4.03161000000000   12.30449000000000
Cl          0.26933000000000    1.77009000000000    4.78795000000000
Cl          2.44175000000000    1.26969000000000    3.94808000000000
Cl          1.20057000000000   -4.06848000000000    6.44167000000000
C          -3.57602000000000   -4.14664000000000   -4.14533000000000
Cl          1.19864000000000   -4.06715000000000    6.44093000000000
Cl          1.20505000000000   -4.07683000000000    6.42982000000000
Cl          1.84207000000000   -6.87164000000000    0.99334000000000
C          -1.69318000000000    2.75731000000000    2.43295000000000
S          -6.10162000000000   -0.42396000000000   -3.59200000000000
C          -6.03151000000000   -0.53493000000000   -2.41938000000000
H           7.14768000000000   -0.86880000000000    0.54458000000000
H           6.94722000000000    0.77517000000000   -0.29023000000000
H           6.43633000000000   -0.84317000000000   -1.12638000000000
H           3.51233000000000   -0.13593000000000    2.30013000000000
H           3.49215000000000    1.43556000000000    1.64399000000000
H          -7.06348000000000    0.49841000000000    4.23038000000000
H          -3.79729000000000    1.02300000000000   -0.87570000000000
H          -6.33440000000000   -1.07712000000000   -3.35074000000000
H          -6.42679000000000   -1.05230000000000   -1.50082000000000
H          -6.38621000000000    0.49083000000000   -2.46781000000000
