36
 SCF done************************************************
C           4.53056000000000    0.45883000000000    2.40584000000000
S           4.27234000000000   -1.06222000000000    1.69300000000000
C           2.59060000000000   -1.34367000000000    1.39430000000000
Si          2.39611000000000   -0.71238000000000    0.10522000000000
Si         60.35508000000000   -5.06511000000000   16.44939000000000
Br          1.00435000000000    1.87400000000000   -3.38991000000000
Br          4.13258000000000   -1.57480000000000   -2.47265000000000
Si        -11.52114000000000   46.60531000000001   14.25962000000000
Br          0.15080000000000    2.07151000000000   -2.77190000000000
Br          3.24304000000000    0.05571000000000   -3.66076000000000
Si         -1.49565000000000   -8.43095000000000   10.18081000000000
Br          4.13257000000000   -1.57480000000000   -2.47265000000000
Br          1.44354000000000   -5.01905000000000   -4.57502000000000
Si         -2.34020000000000   -1.49016000000000    3.37663000000000
Br          0.18655000000000    2.02024000000000   -2.73787000000000
Br         -1.16306000000000    0.22296000000000   -3.82229000000000
Si         -2.40411000000000    1.07261000000000   -0.74913000000000
Si        -54.57646000000000   -0.13399000000000  -16.31864000000000
Br          1.14298000000000   -4.55588000000000   -5.02874000000000
Br         -1.23494000000000    0.31892000000000   -3.90408000000000
Si          3.81465000000000  -16.53192000000000   -7.66095000000000
Br          1.57407000000000   -5.07612000000000   -4.65478000000000
Br         -1.16301000000000    0.22294000000000   -3.82233000000000
C          -3.20446000000000    1.32148000000000    0.10862000000000
S          -4.43733000000000    0.09599000000000    0.16317000000000
C          -4.68471000000000   -0.65619000000000    1.78354000000000
H           5.12844000000000    0.38544000000000    3.46095000000000
H           5.29115000000000    1.13736000000000    1.88270000000000
H          -0.49524000000000   -3.01187000000000   -0.29245000000000
H           2.23909000000000   -2.39409000000000    1.30361000000000
H           1.96152000000000   -0.99719000000000    2.30356000000000
H          -3.50854000000000    2.32520000000000   -0.29191000000000
H          -2.97056000000000    1.59844000000000    1.21118000000000
H          -4.74857000000000    0.23293000000000    2.50697000000000
H          -5.72015000000000   -1.10110000000000    1.87159000000000
H          -3.92190000000000   -1.28835000000000    2.16540000000000
