36
 SCF done        -91.241676753570          0.000903938197
C          -6.31822381718553    0.87527116361921   -1.96187622177224
S          -5.77395915791780    1.52135575112741   -0.35389797780711
C          -4.51442826820932    0.25534367620844    0.05780719220220
Ge         -3.27801747676732    1.62057641277766   -0.83460968239523
Ge         -2.41202255702634   -2.71177734597278    0.31642634370670
Cl         -2.11007176029748   -4.83545566590839    0.52595352862956
Cl         -1.98305908495244   -2.16890000812548    2.55059404766676
Ge          0.17692272995311   -1.84905670331404   -0.29507971846273
Cl         -1.07646745329161    0.24387655730425    0.15973337924713
Cl          0.33641668737417   -1.27596302778297   -2.40078763411718
Ge         -0.31157428072014    2.33486058503506    1.21509092562497
Cl         -0.35820160908240    3.13995655481399   -1.01852463252343
Cl         -2.89356167107849    2.69307303951805    1.15447362803188
Ge          1.93365222948310    1.88979753840256   -2.03412261634815
Cl          3.12044777159464    3.68990444232230   -2.05229656456208
Cl          2.09445678719646    1.59225673820311    0.41692976491395
Ge          2.45174999520691   -1.00446452943429    0.71904110904037
Ge          3.79628985514243   -2.38315702899275    2.60289744602989
Cl          2.71956593470401   -3.58767730447141    0.90454649996179
Cl          5.76983910147740   -2.23801361490500    1.73039305042303
Ge          0.32192053531369   -1.88900912349710    3.58625929379572
Cl         -0.41022544637406   -1.73717030405472    5.61665106515756
Cl          0.35080048975336    0.39013516075510    3.12863155886768
C           3.60198148393136   -1.17420473554365   -1.01996518487318
S           4.13342087161366    0.29198821531884   -1.93604344748847
C           5.25449407060928    1.02788458490734   -0.71600349345523
H          -6.96686049440937    1.62237921290267   -2.40753674520934
H          -6.87231686838451   -0.04451130846485   -1.79741387995208
H          -5.45934978709582    0.69116318985302   -2.60525711478634
H          -4.48517158821763    0.15215428959699    1.14016598472831
H          -4.81080321794440   -0.69015261600407   -0.39207992919713
H           3.04383881242081   -1.76306160205806   -1.74827263248917
H           4.51502525701709   -1.72093190262273   -0.78201345736046
H           5.50634671571985    2.02378603939442   -1.06597036792448
H           6.14538293929145    0.40996553621899   -0.65570515234797
H           4.76176227116997    1.07693813288135    0.25187163496505
